Codigos/Simulacoes/57/06 - EE/ieee57_22_2200_EE.txt
================================================================================= 
=== UFF - Doutorado em Computação - Aplicaçoes em Sistemas de Potencia        === 
=== ESTIMADOR DE ESTADO MÍNIMOS QUADRADOS PONDERADOS INCLUINDO MEDIDAS DE PMU === 
=== Desenvolvido por: Rui Menezes de Moraes - 2009                            === 
================================================================================= 
Arquivo de medidores:          F:\Documents\Uff\Artigos\SimSEP\VERSAO WELDAN V2\Codigos\Med\ieee57_22_2200.med
Arquivo do sistema:            F:\Documents\Uff\Artigos\SimSEP\VERSAO WELDAN V2\Codigos\Carga\ieee57_22_2200.txt
Tolerância entre iteraçoes:     1.00e-04
Limite de iteraçoes:           100

--- DADOS DA REDE --------------------------------------------------------------- 
Data do caso:                  08/25/93
Origem:                        UW ARCHIVE          
MVA base:                      100
Ano:                           1961
Estação:                       W
Identificação:                 IEEE 57 Bus Test Case
Número de barras:              57 
Número de ramos:               80 
Referência na barra:           1

--- TELEMEDIDAS ------------------------------------------------------------------
    Tipo 1 = Fluxo de potencia ativa        Tipo  6 = Módulo da tensão            
    Tipo 2 = Injeção de potencia ativa      Tipo  7 = Corrente de ramo (real)     
    Tipo 3 = Ângulo de fase da tensão       Tipo  8 = Corrente de ramo (imag)     
    Tipo 4 = Fluxo de potencia reativa      Tipo  9 = Injeção de corrente (real)  
    Tipo 5 = Injeção de potencia reativa    Tipo 10 = Injeção de corrente (imag)  
----------------------------------------------------------------------------------
   N    D    P TP  PN ST   Exa   FS       DP      V_Ref      V_Med          E(%) 
----------------------------------------------------------------------------------
   1    0    1  6   0  0 0.015 01.1  0.00520   +1.04000   +1.03219     -0.750962 
   2    0    2  6   0  0 0.015 01.1  0.00512   +1.02360   +1.00958     -1.369676 
   3    0    3  6   0  0 0.015 01.1  0.00513   +1.02536   +1.02633     +0.094601 
   4    0    4  6   0  0 0.015 01.1  0.00510   +1.02048   +1.01057     -0.971112 
   5    0    5  6   0  0 0.015 01.1  0.00506   +1.01164   +1.01231     +0.066229 
   6    0    6  6   0  0 0.015 01.1  0.00505   +1.00951   +1.02076     +1.114402 
   7    0    7  6   0  0 0.015 01.1  0.00503   +1.00570   +1.00913     +0.341056 
   8    0    8  6   0  0 0.015 01.1  0.00502   +1.00500   +0.99811     -0.685572 
   9    0    9  6   0  0 0.015 01.1  0.00497   +0.99403   +1.00460     +1.063348 
  10    0   10  6   0  0 0.015 01.1  0.00502   +1.00329   +0.99298     -1.027619 
  11    0   11  6   0  0 0.015 01.1  0.00498   +0.99708   +0.98988     -0.722109 
  12    0   12  6   0  0 0.015 01.1  0.00507   +1.01500   +1.02019     +0.511330 
  13    0   13  6   0  0 0.015 01.1  0.00501   +1.00154   +0.99330     -0.822733 
  14    0   14  6   0  0 0.015 01.1  0.00500   +1.00034   +1.01013     +0.978667 
  15    0   15  6   0  0 0.015 01.1  0.00507   +1.01391   +1.00856     -0.527660 
  16    0   16  6   0  0 0.015 01.1  0.00510   +1.01972   +1.01937     -0.034323 
  17    0   17  6   0  0 0.015 01.1  0.00513   +1.02648   +1.03460     +0.791053 
  18    0   18  6   0  0 0.015 01.1  0.00530   +1.05930   +1.06685     +0.712735 
  19    0   19  6   0  0 0.015 01.1  0.00519   +1.03704   +1.04127     +0.407892 
  20    0   20  6   0  0 0.015 01.1  0.00514   +1.02870   +1.02095     -0.753378 
  21    0   21  6   0  0 0.015 01.1  0.00536   +1.07094   +1.07847     +0.703121 
  22    0   22  6   0  0 0.015 01.1  0.00535   +1.07014   +1.06499     -0.481245 
  23    0   23  6   0  0 0.015 01.1  0.00535   +1.06988   +1.06355     -0.591655 
  24    0   24  6   0  0 0.015 01.1  0.00536   +1.07163   +1.05964     -1.118856 
  25    0   25  6   0  0 0.015 01.1  0.00545   +1.08899   +1.07299     -1.469251 
  26    0   26  6   0  0 0.015 01.1  0.00512   +1.02350   +1.03654     +1.274060 
  27    0   27  6   0  0 0.015 01.1  0.00516   +1.03142   +1.04411     +1.230343 
  28    0   28  6   0  0 0.015 01.1  0.00519   +1.03799   +1.03432     -0.353568 
  29    0   29  6   0  0 0.015 01.1  0.00522   +1.04461   +1.05092     +0.604053 
  30    0   30  6   0  0 0.015 01.1  0.00540   +1.07913   +1.08471     +0.517083 
  31    0   31  6   0  0 0.015 01.1  0.00532   +1.06402   +1.05214     -1.116520 
  32    0   32  6   0  0 0.015 01.1  0.00532   +1.06291   +1.05337     -0.897536 
  33    0   33  6   0  0 0.015 01.1  0.00531   +1.06198   +1.07481     +1.208121 
  34    0   34  6   0  0 0.015 01.1  0.00524   +1.04770   +1.06001     +1.174955 
  35    0   35  6   0  0 0.015 01.1  0.00525   +1.04965   +1.04580     -0.366789 
  36    0   36  6   0  0 0.015 01.1  0.00526   +1.05288   +1.04499     -0.749373 
  37    0   37  6   0  0 0.015 01.1  0.00528   +1.05694   +1.06020     +0.308438 
  38    0   38  6   0  0 0.015 01.1  0.00535   +1.07045   +1.07448     +0.376477 
  39    0   39  6   0  0 0.015 01.1  0.00528   +1.05573   +1.04052     -1.440709 
  40    0   40  6   0  0 0.015 01.1  0.00525   +1.05050   +1.06058     +0.959543 
  41    0   41  6   0  0 0.015 01.1  0.00523   +1.04623   +1.04680     +0.054481 
  42    0   42  6   0  0 0.015 01.1  0.00519   +1.03818   +1.05093     +1.228111 
  43    0   43  6   0  0 0.015 01.1  0.00521   +1.04162   +1.02970     -1.144371 
  44    0   44  6   0  0 0.015 01.1  0.00534   +1.06751   +1.08180     +1.338629 
  45    0   45  6   0  0 0.015 01.1  0.00532   +1.06500   +1.07865     +1.281690 
  46    0   46  6   0  0 0.015 01.1  0.00549   +1.09854   +1.08519     -1.215249 
  47    0   47  6   0  0 0.015 01.1  0.00541   +1.08298   +1.08023     -0.253929 
  48    0   48  6   0  0 0.015 01.1  0.00540   +1.07946   +1.07372     -0.531747 
  49    0   49  6   0  0 0.015 01.1  0.00542   +1.08426   +1.09552     +1.038496 
  50    0   50  6   0  0 0.015 01.1  0.00537   +1.07408   +1.08852     +1.344406 
  51    0   51  6   0  0 0.015 01.1  0.00540   +1.07919   +1.08661     +0.687553 
  52    0   52  6   0  0 0.015 01.1  0.00518   +1.03551   +1.04122     +0.551419 
  53    0   53  6   0  0 0.015 01.1  0.00517   +1.03357   +1.03795     +0.423774 
  54    0   54  6   0  0 0.015 01.1  0.00520   +1.04041   +1.03466     -0.552667 
  55    0   55  6   0  0 0.015 01.1  0.00526   +1.05155   +1.05888     +0.697066 
  56    0   56  6   0  0 0.015 01.1  0.00522   +1.04367   +1.03295     -1.027145 
  57    0   57  6   0  0 0.015 01.1  0.00522   +1.04450   +1.05265     +0.780278 
  58    0    1  2   0  0 0.020 01.0  0.01908   -2.60170   -2.64842     +1.795749 
  59    0    2  2   0  0 0.020 01.0  0.00183   -0.01398   -0.00886    -36.623748 
  60    0    3  2   0  0 0.020 01.0  0.01314   +1.71096   +1.71955     +0.502057 
  61    0    4  2   0  0 0.020 01.0  0.00173   +0.00000   +0.00411     +0.000000 
  62    0    5  2   0  0 0.020 01.0  0.00213   -0.06000   -0.06391     +6.516667 
  63    0    6  2   0  0 0.020 01.0  0.00403   -0.34500   -0.33318     -3.426087 
  64    0    7  2   0  0 0.020 01.0  0.00173   +0.00000   -0.00269     +0.000000 
  65    0    8  2   0  0 0.020 01.0  0.02713   +3.81000   +3.76498     -1.181627 
  66    0    9  2   0  0 0.020 01.0  0.00754   -0.87100   -0.87543     +0.508611 
  67    0   10  2   0  0 0.020 01.0  0.00207   -0.05000   -0.04652     -6.960000 
  68    0   11  2   0  0 0.020 01.0  0.00173   -0.00000   +0.00353     +0.000000 
  69    0   12  2   0  0 0.020 01.0  0.00557   +0.57600   +0.57297     -0.526042 
  70    0   13  2   0  0 0.020 01.0  0.00229   -0.08300   -0.08434     +1.614458 
  71    0   14  2   0  0 0.020 01.0  0.00205   -0.04800   -0.04465     -6.979167 
  72    0   15  2   0  0 0.020 01.0  0.00241   -0.10098   -0.10460     +3.584868 
  73    0   16  2   0  0 0.020 01.0  0.00305   -0.19800   -0.19130     -3.383838 
  74    0   17  2   0  0 0.020 01.0  0.00302   -0.19300   -0.18970     -1.709845 
  75    0   18  2   0  0 0.020 01.0  0.00257   -0.12500   -0.11765     -5.880000 
  76    0   19  2   0  0 0.020 01.0  0.00183   -0.01500   -0.01846    +23.066667 
  77    0   20  2   0  0 0.020 01.0  0.00181   -0.01100   -0.01408    +28.000000 
  78    0   21  2   0  0 0.020 01.0  0.00173   -0.00000   -0.00195     +0.000000 
  79    0   22  2   0  0 0.020 01.0  0.00173   +0.00000   +0.00262     +0.000000 
  80    0   23  2   0  0 0.020 01.0  0.00193   -0.02900   -0.03053     +5.275862 
  81    0   24  2   0  0 0.020 01.0  0.00173   +0.00000   +0.00109     +0.000000 
  82    0   25  2   0  0 0.020 01.0  0.00193   -0.02900   -0.03035     +4.655172 
  83    0   26  2   0  0 0.020 01.0  0.00173   -0.00000   +0.00052     +0.000000 
  84    0   27  2   0  0 0.020 01.0  0.00202   -0.04300   -0.04439     +3.232558 
  85    0   28  2   0  0 0.020 01.0  0.00187   -0.02100   -0.01914     -8.857143 
  86    0   29  2   0  0 0.020 01.0  0.00225   -0.07800   -0.08456     +8.410256 
  87    0   30  2   0  0 0.020 01.0  0.00185   -0.01700   -0.01353    -20.411765 
  88    0   31  2   0  0 0.020 01.0  0.00191   -0.02700   -0.02872     +6.370370 
  89    0   32  2   0  0 0.020 01.0  0.00178   -0.00700   -0.00470    -32.857143 
  90    0   33  2   0  0 0.020 01.0  0.00185   -0.01700   -0.01192    -29.882353 
  91    0   34  2   0  0 0.020 01.0  0.00173   -0.00000   +0.00008     +0.000000 
  92    0   35  2   0  0 0.020 01.0  0.00192   -0.02800   -0.02609     -6.821429 
  93    0   36  2   0  0 0.020 01.0  0.00173   +0.00000   -0.00073     +0.000000 
  94    0   37  2   0  0 0.020 01.0  0.00173   +0.00000   +0.00363     +0.000000 
  95    0   38  2   0  0 0.020 01.0  0.00216   -0.06400   -0.06200     -3.125000 
  96    0   39  2   0  0 0.020 01.0  0.00173   +0.00000   +0.00004     +0.000000 
  97    0   40  2   0  0 0.020 01.0  0.00173   +0.00000   -0.00137     +0.000000 
  98    0   41  2   0  0 0.020 01.0  0.00193   -0.02900   -0.02686     -7.379310 
  99    0   42  2   0  0 0.020 01.0  0.00195   -0.03300   -0.03770    +14.242424 
 100    0   43  2   0  0 0.020 01.0  0.00179   -0.00900   -0.01387    +54.111111 
 101    0   44  2   0  0 0.020 01.0  0.00210   -0.05500   -0.05035     -8.454545 
 102    0   45  2   0  0 0.020 01.0  0.00173   -0.00000   +0.00158     +0.000000 
 103    0   46  2   0  0 0.020 01.0  0.00173   +0.00000   +0.00115     +0.000000 
 104    0   47  2   0  0 0.020 01.0  0.00265   -0.13700   -0.13824     +0.905109 
 105    0   48  2   0  0 0.020 01.0  0.00173   +0.00000   +0.00004     +0.000000 
 106    0   49  2   0  0 0.020 01.0  0.00229   -0.08300   -0.08761     +5.554217 
 107    0   50  2   0  0 0.020 01.0  0.00238   -0.09700   -0.10281     +5.989691 
 108    0   51  2   0  0 0.020 01.0  0.00229   -0.08300   -0.08046     -3.060241 
 109    0   52  2   0  0 0.020 01.0  0.00189   -0.02300   -0.02704    +17.565217 
 110    0   53  2   0  0 0.020 01.0  0.00235   -0.09200   -0.09160     -0.434783 
 111    0   54  2   0  0 0.020 01.0  0.00186   -0.01900   -0.02454    +29.157895 
 112    0   55  2   0  0 0.020 01.0  0.00194   -0.03100   -0.03187     +2.806452 
 113    0   56  2   0  0 0.020 01.0  0.00197   -0.03500   -0.03825     +9.285714 
 114    0   57  2   0  0 0.020 01.0  0.00194   -0.03100   -0.02914     -6.000000 
 115    0    1  5   0  0 0.020 01.0  0.01303   +1.69440   +1.69464     +0.014164 
 116    0    2  5   0  0 0.020 01.0  0.00557   -0.57500   -0.57166     -0.580870 
 117    0    3  5   0  0 0.020 01.0  0.00305   -0.19693   -0.20241     +2.782715 
 118    0    4  5   0  0 0.020 01.0  0.00173   +0.00000   -0.00377     +0.000000 
 119    0    5  5   0  0 0.020 01.0  0.00185   -0.01800   -0.02330    +29.444444 
 120    0    6  5   0  0 0.020 01.0  0.00233   -0.08899   -0.08286     -6.888414 
 121    0    7  5   0  0 0.020 01.0  0.00173   -0.00000   +0.00203     +0.000000 
 122    0    8  5   0  0 0.020 01.0  0.00453   -0.41909   -0.41762     -0.350760 
 123    0    9  5   0  0 0.020 01.0  0.00318   -0.21700   -0.22090     +1.797235 
 124    0   10  5   0  0 0.020 01.0  0.00187   -0.02000   -0.02512    +25.600000 
 125    0   11  5   0  0 0.020 01.0  0.00173   -0.00000   +0.00368     +0.000000 
 126    0   12  5   0  0 0.020 01.0  0.00220   +0.07033   +0.07161     +1.819991 
 127    0   13  5   0  0 0.020 01.0  0.00181   -0.01100   -0.01622    +47.454545 
 128    0   14  5   0  0 0.020 01.0  0.00189   -0.02400   -0.01908    -20.500000 
 129    0   15  5   0  0 0.020 01.0  0.00189   -0.02300   -0.02855    +24.130435 
 130    0   16  5   0  0 0.020 01.0  0.00183   -0.01400   -0.01246    -11.000000 
 131    0   17  5   0  0 0.020 01.0  0.00198   -0.03700   -0.03357     -9.270270 
 132    0   18  5   0  0 0.020 01.0  0.00203   -0.04500   -0.04468     -0.711111 
 133    0   19  5   0  0 0.020 01.0  0.00175   -0.00300   -0.00520    +73.333333 
 134    0   20  5   0  0 0.020 01.0  0.00177   -0.00500   -0.00364    -27.200000 
 135    0   21  5   0  0 0.020 01.0  0.00173   +0.00000   -0.00078     +0.000000 
 136    0   22  5   0  0 0.020 01.0  0.00173   -0.00000   +0.00048     +0.000000 
 137    0   23  5   0  0 0.020 01.0  0.00180   -0.01000   -0.01334    +33.400000 
 138    0   24  5   0  0 0.020 01.0  0.00173   +0.00000   +0.00254     +0.000000 
 139    0   25  5   0  0 0.020 01.0  0.00183   -0.01500   -0.01816    +21.066667 
 140    0   26  5   0  0 0.020 01.0  0.00173   -0.00000   -0.00416     +0.000000 
 141    0   27  5   0  0 0.020 01.0  0.00175   -0.00200   +0.00215   -207.500000 
 142    0   28  5   0  0 0.020 01.0  0.00181   -0.01100   -0.00751    -31.727273 
 143    0   29  5   0  0 0.020 01.0  0.00181   -0.01200   -0.00784    -34.666667 
 144    0   30  5   0  0 0.020 01.0  0.00179   -0.00800   -0.01242    +55.250000 
 145    0   31  5   0  0 0.020 01.0  0.00182   -0.01300   -0.01081    -16.846154 
 146    0   32  5   0  0 0.020 01.0  0.00176   -0.00400   -0.00748    +87.000000 
 147    0   33  5   0  0 0.020 01.0  0.00179   -0.00900   -0.00542    -39.777778 
 148    0   34  5   0  0 0.020 01.0  0.00173   -0.00000   +0.00237     +0.000000 
 149    0   35  5   0  0 0.020 01.0  0.00183   -0.01400   -0.01098    -21.571429 
 150    0   36  5   0  0 0.020 01.0  0.00173   -0.00000   +0.00274     +0.000000 
 151    0   37  5   0  0 0.020 01.0  0.00173   +0.00000   -0.00461     +0.000000 
 152    0   38  5   0  0 0.020 01.0  0.00195   -0.03200   -0.03072     -4.000000 
 153    0   39  5   0  0 0.020 01.0  0.00173   -0.00000   +0.00414     +0.000000 
 154    0   40  5   0  0 0.020 01.0  0.00173   -0.00000   +0.00017     +0.000000 
 155    0   41  5   0  0 0.020 01.0  0.00183   -0.01400   -0.01393     -0.500000 
 156    0   42  5   0  0 0.020 01.0  0.00187   -0.02000   -0.02274    +13.700000 
 157    0   43  5   0  0 0.020 01.0  0.00177   -0.00500   -0.00000   -100.000000 
 158    0   44  5   0  0 0.020 01.0  0.00179   -0.00800   -0.00713    -10.875000 
 159    0   45  5   0  0 0.020 01.0  0.00173   +0.00000   +0.00487     +0.000000 
 160    0   46  5   0  0 0.020 01.0  0.00173   +0.00000   -0.00477     +0.000000 
 161    0   47  5   0  0 0.020 01.0  0.00209   -0.05300   -0.05690     +7.358491 
 162    0   48  5   0  0 0.020 01.0  0.00173   -0.00000   +0.00021     +0.000000 
 163    0   49  5   0  0 0.020 01.0  0.00199   -0.03900   -0.03732     -4.307692 
 164    0   50  5   0  0 0.020 01.0  0.00205   -0.04800   -0.04996     +4.083333 
 165    0   51  5   0  0 0.020 01.0  0.00189   -0.02400   -0.02232     -7.000000 
 166    0   52  5   0  0 0.020 01.0  0.00180   -0.01000   -0.01156    +15.600000 
 167    0   53  5   0  0 0.020 01.0  0.00204   -0.04600   -0.04171     -9.326087 
 168    0   54  5   0  0 0.020 01.0  0.00177   -0.00600   -0.00554     -7.666667 
 169    0   55  5   0  0 0.020 01.0  0.00184   -0.01600   -0.01409    -11.937500 
 170    0   56  5   0  0 0.020 01.0  0.00180   -0.01000   -0.01263    +26.300000 
 171    0   57  5   0  0 0.020 01.0  0.00179   -0.00900   -0.01307    +45.222222 
 172    1    2  1   0  0 0.020 01.0  0.00902   -1.09291   -1.11777     +2.274661 
 173    2    3  1   0  0 0.020 01.0  0.00922   -1.12310   -1.10164     -1.910783 
 174    3    4  1   0  0 0.020 01.0  0.00407   -0.35068   -0.34449     -1.765142 
 175    4    5  1   0  0 0.020 01.0  0.00298   -0.18761   -0.18220     -2.883642 
 176    4    6  1   0  0 0.020 01.0  0.00390   -0.32438   -0.32575     +0.422344 
 177    6    7  1   0  0 0.020 01.0  0.00423   -0.37435   -0.38512     +2.876987 
 178    6    8  1   0  0 0.020 01.0  0.00543   -0.55458   -0.56585     +2.032168 
 179    8    9  1   0  0 0.020 01.0  0.01785   +2.41775   +2.39068     -1.119636 
 180    9   10  1   0  0 0.020 01.0  0.00397   +0.33528   +0.32526     -2.988547 
 181    9   11  1   0  0 0.020 01.0  0.00479   +0.45904   +0.46920     +2.213315 
 182    9   12  1   0  0 0.020 01.0  0.00333   +0.23922   +0.23238     -2.859293 
 183    9   13  1   0  0 0.020 01.0  0.00442   +0.40362   +0.40672     +0.768049 
 184   13   14  1   0  0 0.020 01.0  0.00358   +0.27711   +0.27772     +0.220129 
 185   13   15  1   0  0 0.020 01.0  0.00292   +0.17799   +0.17258     -3.039497 
 186    1   15  1   0  0 0.020 01.0  0.00825   -0.97706   -0.96421     -1.315170 
 187    1   16  1   0  0 0.020 01.0  0.00372   -0.29842   -0.29585     -0.861202 
 188    1   17  1   0  0 0.020 01.0  0.00329   -0.23332   -0.24018     +2.940168 
 189    3   15  1   0  0 0.020 01.0  0.00771   +0.89719   +0.89509     -0.234064 
 190    4   18  1   0  0 0.020 01.0  0.00220   +0.06989   +0.07229     +3.433968 
 191    4   18  1   0  0 0.020 01.0  0.00233   +0.08947   +0.08641     -3.420141 
 192    5    6  1   0  0 0.020 01.0  0.00341   -0.25129   -0.24873     -1.018743 
 193    7    8  1   0  0 0.020 01.0  0.00718   -0.81685   -0.79782     -2.329681 
 194   10   12  1   0  0 0.020 01.0  0.00245   +0.10736   +0.10835     +0.922131 
 195   11   13  1   0  0 0.020 01.0  0.00396   +0.33394   +0.33853     +1.374498 
 196   12   13  1   0  0 0.020 01.0  0.00190   -0.02551   -0.02005    -21.403371 
 197   12   16  1   0  0 0.020 01.0  0.00511   +0.50643   +0.51866     +2.414944 
 198   12   17  1   0  0 0.020 01.0  0.00464   +0.43640   +0.44054     +0.948671 
 199   14   15  1   0  0 0.020 01.0  0.00213   +0.05920   +0.06536    +10.405405 
...
Número de medidores SCADA:     491
Número de PMUs:                0
Número de medidas das PMUs:    0
----------------------------------------------------------------------------------

Não há medidas de ângulo.
Não há medidores desabilitados.
============================== Estado Estimado ===================================
                 Barra     Mod(pu)    Ang(graus)              
----------------------------------------------------------------------------------
                    1            1.0403              0.00        
                    2            1.0242              2.08        
                    3            1.0258              8.03        
                    4            1.0209              8.89        
                    5            1.0122             10.80        
                    6            1.0102             11.97        
                    7            1.0063             14.26        
                    8            1.0053             17.69        
                    9            0.9944             10.64        
                   10            1.0037              7.19        
                   11            0.9977              8.15        
                   12            1.0155              6.23        
                   13            1.0020              6.55        
                   14            1.0010              5.83        
                   15            1.0144              5.38        
                   16            1.0201              3.79        
                   17            1.0270              1.62        
                   18            1.0580              7.02        
                   19            1.0352              6.11        
                   20            1.0279              5.75        
                   21            1.0717              5.31        
                   22            1.0711              5.26        
                   23            1.0708              5.34        
                   24            1.0731              7.02        
                   25            1.0890              4.77        
                   26            1.0248              7.46        
                   27            1.0327             10.56        
                   28            1.0393             11.92        
                   29            1.0455             12.79        
                   30            1.0789              4.46        
                   31            1.0635              3.83        
                   32            1.0619              3.83        
                   33            1.0611              3.82        
                   34            1.0482              4.91        
                   35            1.0503              4.97        
                   36            1.0536              5.06        
                   37            1.0577              5.07        
                   38            1.0714              5.10        
                   39            1.0565              5.07        
                   40            1.0512              5.11        
                   41            1.0467              6.24        
                   42            1.0381              5.24        
                   43            1.0424              7.58        
                   44            1.0684              5.05        
                   45            1.0658              5.28        
                   46            1.0994              5.25        
                   47            1.0840              4.90        
                   48            1.0805              4.99        
                   49            1.0851              5.09        
                   50            1.0747              5.37        
                   51            1.0797              6.59        
                   52            1.0361             11.36        
                   53            1.0346             10.69        
                   54            1.0413             10.40        
                   55            1.0522             10.32        
                   56            1.0435              4.64        
                   57            1.0440              4.27        
----------------------------------------------------------------------------------
Convergiu em:    3 iteraçoes. 
----------------------------------------------------------------------------------
--- RESIDUOS NORMALIZADOS --------------------------------------------------------
   N    D    P  TP      Real     Medido   Estimado      Med-Est        rn 
----------------------------------------------------------------------------------
 430   18    4  4    +0.0151    +0.0202    +0.0360  -1.5860e-02      0.395 
 270    4   18  4    -0.0125    -0.0179    -0.0328  +1.4957e-02      0.373 
 350   18    4  1    -0.0699    -0.0684    -0.0837  +1.5385e-02      0.349 
  61    0    4  2    +0.0000    +0.0041    -0.0020  +6.1565e-03      0.289 
 338    8    6  1    +0.5657    +0.5821    +0.5632  +1.8961e-02      0.264 
 173    2    3  1    -1.1231    -1.1016    -1.1257  +2.4039e-02      0.263 
 190    4   18  1    +0.0699    +0.0723    +0.0837  -1.1455e-02      0.260 
 332    2    1  1    +1.1091    +1.0951    +1.1175  -2.2419e-02      0.253 
  63    0    6  2    -0.3450    -0.3332    -0.3435  +1.0353e-02      0.250 
  64    0    7  2    +0.0000    -0.0027    +0.0020  -4.7281e-03      0.243 
 118    0    4  5    +0.0000    -0.0038    +0.0016  -5.4027e-03      0.231 
  86    0   29  2    -0.0780    -0.0846    -0.0779  -6.6870e-03      0.227 
  25    0   25  6    +1.0890    +1.0730    +1.0890  -1.6030e-02      0.223 
  39    0   39  6    +1.0557    +1.0405    +1.0565  -1.6015e-02      0.223 
 333    3    2  1    +1.1644    +1.1876    +1.1672  +2.0421e-02      0.221 
 347   16    1  1    +0.3035    +0.2932    +0.3060  -1.2825e-02      0.218 
 119    0    5  5    -0.0180    -0.0233    -0.0169  -6.3920e-03      0.212 
  58    0    1  2    -2.6017    -2.6484    -2.6235  -2.4945e-02      0.211 
 132    0   18  5    -0.0450    -0.0447    -0.0518  +7.0978e-03      0.209 
 336    6    4  1    +0.3301    +0.3406    +0.3282  +1.2397e-02      0.206 
   2    0    2  6    +1.0236    +1.0096    +1.0242  -1.4579e-02      0.205 
 186    1   15  1    -0.9771    -0.9642    -0.9819  +1.7710e-02      0.205 
 317   13   49  4    +0.2058    +0.2151    +0.2043  +1.0845e-02      0.202 
 181    9   11  1    +0.4590    +0.4692    +0.4564  +1.2807e-02      0.197 
  33    0   33  6    +1.0620    +1.0748    +1.0611  +1.3745e-02      0.195 
  46    0   46  6    +1.0985    +1.0852    +1.0994  -1.4200e-02      0.193 
 178    6    8  1    -0.5546    -0.5658    -0.5521  -1.3733e-02      0.192 
  50    0   50  6    +1.0741    +1.0885    +1.0747  +1.3778e-02      0.190 
 174    3    4  1    -0.3507    -0.3445    -0.3547  +1.0250e-02      0.188 
 172    1    2  1    -1.0929    -1.1178    -1.1012  -1.6527e-02      0.188 
  24    0   24  6    +1.0716    +1.0596    +1.0731  -1.3421e-02      0.185 
  44    0   44  6    +1.0675    +1.0818    +1.0684  +1.3354e-02      0.184 
 335    5    4  1    +0.1913    +0.1984    +0.1889  +9.5521e-03      0.184 
  65    0    8  2    +3.8100    +3.7650    +3.7912  -2.6240e-02      0.183 
 111    0   54  2    -0.0190    -0.0245    -0.0186  -5.9413e-03      0.182 
 442   20   21  4    +0.0026    +0.0075    +0.0006  +6.9335e-03      0.182 
  42    0   42  6    +1.0382    +1.0509    +1.0381  +1.2803e-02      0.181 
 395   51   50  1    +0.0902    +0.0837    +0.0918  -8.1556e-03      0.180 
 416    6    4  4    -0.1782    -0.1854    -0.1761  -9.3238e-03      0.178 
  43    0   43  6    +1.0416    +1.0297    +1.0424  -1.2748e-02      0.178 
  45    0   45  6    +1.0650    +1.0787    +1.0658  +1.2817e-02      0.177 
  85    0   28  2    -0.0210    -0.0191    -0.0141  -5.0516e-03      0.173 
  77    0   20  2    -0.0110    -0.0141    -0.0085  -5.5465e-03      0.170 
 378   35   34  1    +0.0220    +0.0167    +0.0228  -6.1972e-03      0.168 
 355   13   11  1    -0.3309    -0.3208    -0.3305  +9.7408e-03      0.168 
 435   13   11  4    +0.1577    +0.1643    +0.1563  +8.0941e-03      0.167 
 337    7    6  1    +0.3774    +0.3885    +0.3784  +1.0138e-02      0.167 
  26    0   26  6    +1.0235    +1.0365    +1.0248  +1.1704e-02      0.165 
  34    0   34  6    +1.0477    +1.0600    +1.0482  +1.1781e-02      0.165 
 226   41   42  1    +0.0504    +0.0447    +0.0515  -6.8465e-03      0.164 
 161    0   47  5    -0.0530    -0.0569    -0.0515  -5.4320e-03      0.163 
 121    0    7  5    -0.0000    +0.0020    -0.0021  +4.1346e-03      0.162 
 287   24   25  4    -0.0144    -0.0199    -0.0132  -6.6815e-03      0.162 
 303   36   40  4    +0.0487    +0.0426    +0.0489  -6.3347e-03      0.162 
 447   25   24  4    +0.0161    +0.0215    +0.0149  +6.6761e-03      0.162 
  31    0   31  6    +1.0640    +1.0521    +1.0635  -1.1401e-02      0.162 
 177    6    7  1    -0.3744    -0.3851    -0.3753  -9.7912e-03      0.161 
  27    0   27  6    +1.0314    +1.0441    +1.0327  +1.1368e-02      0.160 
 197   12   16  1    +0.5064    +0.5187    +0.5082  +1.0418e-02      0.159 
  73    0   16  2    -0.1980    -0.1913    -0.1973  +6.0184e-03      0.158 
 265   13   15  4    -0.2069    -0.1980    -0.2066  +8.5724e-03      0.158 
 339    9    8  1    -2.3603    -2.3712    -2.3520  -1.9131e-02      0.157 
 100    0   43  2    -0.0090    -0.0139    -0.0091  -4.8143e-03      0.156 
 122    0    8  5    -0.4191    -0.4176    -0.4258  +8.1438e-03      0.156 
 330   38   48  4    -0.1613    -0.1543    -0.1617  +7.4023e-03      0.156 
 450   28   27  4    -0.0693    -0.0634    -0.0699  +6.4464e-03      0.155 
 484   56   40  4    -0.0462    -0.0401    -0.0470  +6.8681e-03      0.155 
 272    5    6  4    +0.1490    +0.1553    +0.1480  +7.3275e-03      0.154 
  10    0   10  6    +1.0033    +0.9930    +1.0037  -1.0743e-02      0.153 
 359   15   14  1    -0.0579    -0.0548    -0.0611  +6.2646e-03      0.150 
   6    0    6  6    +1.0095    +1.0208    +1.0102  +1.0538e-02      0.150 
 179    8    9  1    +2.4177    +2.3907    +2.4090  -1.8294e-02      0.149 
 193    7    8  1    -0.8168    -0.7978    -0.8096  +1.1734e-02      0.149 
 451   29   28  4    -0.0549    -0.0509    -0.0568  +5.8329e-03      0.148 
  56    0   56  6    +1.0437    +1.0330    +1.0435  -1.0523e-02      0.148 
 366   25   24  1    -0.0386    -0.0437    -0.0373  -6.3270e-03      0.148 
 101    0   44  2    -0.0550    -0.0503    -0.0555  +5.1594e-03      0.146 
   4    0    4  6    +1.0205    +1.0106    +1.0209  -1.0351e-02      0.146 
   9    0    9  6    +0.9940    +1.0046    +0.9944  +1.0187e-02      0.146 
  49    0   49  6    +1.0843    +1.0955    +1.0851  +1.0409e-02      0.143 
 463   40   36  4    -0.0486    -0.0543    -0.0488  -5.5493e-03      0.142 
 470   46   14  4    -0.1927    -0.1842    -0.1912  +7.0822e-03      0.141 
 469   45   15  4    +0.0339    +0.0321    +0.0375  -5.4997e-03      0.140 
 412    2    1  4    -0.9709    -0.9518    -0.9632  +1.1371e-02      0.139 
  79    0   22  2    +0.0000    +0.0026    -0.0012  +3.8052e-03      0.139 
 238   29   52  1    +0.1159    +0.1227    +0.1165  +6.1723e-03      0.139 
 136    0   22  5    -0.0000    +0.0005    +0.0043  -3.7936e-03      0.138 
 356   13   12  1    +0.0266    +0.0300    +0.0249  +5.1055e-03      0.137 
 455   32   31  4    -0.0002    +0.0036    -0.0016  +5.1399e-03      0.136 
 417    7    6  4    -0.1176    -0.1247    -0.1185  -6.2725e-03      0.134 
 349   15    3  1    -0.8848    -0.8741    -0.8849  +1.0786e-02      0.134 
 246   56   42  1    -0.0168    -0.0219    -0.0166  -5.2431e-03      0.133 
 406   42   56  1    +0.0169    +0.0116    +0.0168  -5.2319e-03      0.133 
...